Circuit: * H:\src\GitHub\Li-IonBatteryProtection\LTSpice\Li-IonBatteryProtection.asc

Limiting fall time of source v4 to 1.9984e-016
Limiting fall time of source v3 to 1.9984e-016
Limiting fall time of source v2 to 1.9984e-016
Limiting fall time of source v1 to 1.9984e-016
Early termination of direct N-R iteration.
Direct Newton iteration failed to find .op point.  (Use ".option noopiter" to skip.)
Starting Gmin stepping
Gmin = 10
Gmin = 1.07374
Gmin = 0.115292
Gmin = 0.0123794
Gmin = 0.00132923
Gmin = 0.000142725
Gmin = 1.5325e-005
Gmin = 1.6455e-006
Gmin = 1.76685e-007
Gmin = 1.89714e-008
Gmin = 2.03704e-009
Gmin = 2.18725e-010
Gmin = 2.34854e-011
Gmin = 2.52173e-012
Gmin = 2.70769e-013
Gmin = 0
Gmin stepping succeeded in finding the operating point.

Heightened Def Con from 1 ++++++++++++++++++++++++++++++to 1
Heightened Def Con from 1 ++++++++++++++++++++++++to 1
Heightened Def Con from 2 ++++++++++++++++++++++++++++++to 2
Heightened Def Con from 2 ++++++++++++++++++++++++to 2
Heightened Def Con from 3 ++++++++++++++++++++++++++++++to 3
Heightened Def Con from 3 +++++++++++++++++++++++++to 3
Heightened Def Con from 4 ++++++++++++++++++++++++++++++to 4
Heightened Def Con from 4 +++++++++++++++++++++++++to 4

Date: Thu Aug 24 20:46:14 2017
Total elapsed time: 1.341 seconds.

tnom = 27
temp = 27
method = modified trap
totiter = 26116
traniter = 25466
tranpoints = 4003
accept = 2312
rejected = 1917
matrix size = 132
fillins = 200
solver = Alternate
Thread vector: 26.9/19.4[2] 10.8/8.8[2] 7.2/6.1[2] 2.2/1.8[2]  2592/500
Matrix Compiler1: 23.68 KB object code size  6.6/4.3/[2.8]
Matrix Compiler2: 17.12 KB object code size  3.4/3.6/[2.0]


