Circuit: * H:\src\GitHub\Li-IonBatteryProtection\LTSpice\Li-IonBatteryProtection.asc

Limiting fall time of source v3 to 1.9984e-016
Limiting fall time of source v2 to 1.9984e-016
Limiting fall time of source v1 to 1.9984e-016
WARNING: Less than two connections to node SAWTOOTH-1.  This node is used by V1.
Direct Newton iteration for .op point succeeded.
Heightened Def Con from 1 ++++++++++++++++++++++++++++++to 1
Heightened Def Con from 1 ++++++++++++++++++++++++to 1

Date: Sun Aug 20 22:27:23 2017
Total elapsed time: 0.392 seconds.

tnom = 27
temp = 27
method = modified trap
totiter = 9507
traniter = 9462
tranpoints = 2185
accept = 1641
rejected = 600
matrix size = 76
fillins = 82
solver = Alternate
Matrix Compiler1: 11.90 KB object code size  2.5/2.0/[1.3]
Matrix Compiler2: 8.89 KB object code size  1.8/1.7/[1.0]


